*SPEF "IEEE 1481-1998"
*DESIGN "s1196"
*DATE "Tue Nov 25 16:55:00 2014"
*VENDOR "TAU 2015 Contest"
*PROGRAM "Benchmark Parasitic Generator"
*VERSION "0.0"
*DESIGN_FLOW "NETLIST_TYPE_VERILOG"
*DIVIDER /
*DELIMITER :
*BUS_DELIMITER [ ]
*T_UNIT 1 PS
*C_UNIT 1 FF
*R_UNIT 1 KOHM
*L_UNIT 1 UH

*D_NET net_568 0.2610
*CONN
*I inst_125:ZN O
*I inst_339:A1 I
*CAP
1 inst_125:ZN 0.0166
2 inst_339:A1 0.0166
3 net_568:1 0.0176
4 net_568:2 0.0176
5 net_568:3 0.0729
6 net_568:4 0.0729
7 net_568:5 0.0234
8 net_568:6 0.0234
*RES
2 inst_125:ZN net_568:6 0.0050
3 net_568:1 inst_339:A1 0.0050
4 net_568:2 net_568:1 0.0010
5 net_568:3 net_568:2 0.0050
6 net_568:4 net_568:3 0.0047
7 net_568:5 net_568:4 0.0050
8 net_568:6 net_568:5 0.0015
*END

*D_NET net_47 0.6837
*CONN
*I inst_418:ZN O
*I inst_432:A I
*I inst_138:A2 I
*CAP
1 inst_418:ZN 0.0160
2 inst_432:A 0.0166
3 inst_138:A2 0.0143
4 net_47:1 0.0227
5 net_47:2 0.0167
6 net_47:3 0.0167
7 net_47:4 0.1580
8 net_47:5 0.1652
9 net_47:6 0.1015
10 net_47:7 0.1015
11 net_47:8 0.0244
12 net_47:9 0.0152
13 net_47:10 0.0148
*RES
2 inst_138:A2 net_47:1 0.0021
3 net_47:2 net_47:1 0.0050
4 net_47:2 net_47:3 0.0010
5 net_47:4 net_47:3 0.0050
6 net_47:4 net_47:5 0.0122
7 net_47:5 net_47:10 0.0010
8 net_47:5 net_47:6 0.0050
9 net_47:7 inst_432:A 0.0050
10 net_47:7 net_47:6 0.0120
11 net_47:8 inst_418:ZN 0.0021
12 net_47:9 net_47:8 0.0050
13 net_47:10 net_47:9 0.0050
*END

 